BEGIN OPTIONS
  LENGTH_UNITS FEET
  XORIGIN 0.0
  YORIGIN 0.0
  ANGROT 0.0
END OPTIONS

BEGIN DIMENSIONS
  NLAY 5
  NROW 40
  NCOL 25
END DIMENSIONS

BEGIN GRIDDATA
  DELR
    CONSTANT 500.
  DELC
    CONSTANT 500.
  TOP LAYERED
    OPEN/CLOSE  mv-top.ref
  BOTM LAYERED
    CONSTANT -5.
    CONSTANT -50.
    CONSTANT -51.
    CONSTANT -100.
    OPEN/CLOSE  bottom.csv
  IDOMAIN LAYERED
    CONSTANT 1
    CONSTANT 1
    CONSTANT 1
    CONSTANT 1
    CONSTANT 1
END GRIDDATA