BEGIN Options
  PRINT_OPTION  SUMMARY
  COMPLEXITY  SIMPLE
END Options

BEGIN Nonlinear
  OUTER_HCLOSE   0.1000000E-04
  OUTER_MAXIMUM  10000
END Nonlinear
