
BEGIN GRIDDATA
  STRT LAYERED
  CONSTANT 11.
  CONSTANT 11
  CONSTANT 11
  CONSTANT 11
  CONSTANT 11  
END GRIDDATA