BEGIN OPTIONS
  HEAD FILEOUT mv.hds
  BUDGET FILEOUT mv.cbc
  HEAD PRINT_FORMAT COLUMNS 25 WIDTH 7 DIGITS 2 FIXED
END OPTIONS

BEGIN PERIOD 1
  SAVE BUDGET ALL
  PRINT BUDGET ALL
  SAVE HEAD ALL
  PRINT HEAD ALL
END PERIOD
