begin options
  PRINT_INPUT
end options

begin dimensions
  MAXBOUND 18
end dimensions

begin period 1
         1        23         9 1.750E+00 1.000E+05 -2.000E+0
         1        24         9 1.650E+00 1.000E+05 -2.000E+0
         1        25         9 1.550E+00 1.000E+05 -2.000E+0
         1        26         9 1.450E+00 1.000E+05 -2.000E+0
         1        27         9 1.350E+00 1.000E+05 -2.000E+0
         1        28         9 1.250E+00 1.000E+05 -2.000E+0
         1        29         9 1.150E+00 1.000E+05 -2.000E+0
         1        30         9 1.050E+00 1.000E+05 -2.000E+0
         1        31         9 9.500E-01 1.000E+05 -2.000E+0
         1        32         9 8.500E-01 1.000E+05 -2.000E+0
         1        33         9 7.500E-01 1.000E+05 -2.000E+0
         1        34         9 6.500E-01 1.000E+05 -2.000E+0
         1        35         9 5.500E-01 1.000E+05 -2.000E+0
         1        36         9 4.500E-01 1.000E+05 -2.000E+0
         1        37         9 3.500E-01 1.000E+05 -2.000E+0
         1        38         9 2.500E-01 1.000E+05 -2.000E+0
         1        39         9 1.500E-01 1.000E+05 -2.000E+0
         1        40         9 5.000E-02 1.000E+05 -2.000E+0
end period
