BEGIN OPTIONS
  READASARRAYS
END OPTIONS

BEGIN PERIOD 1
  RECHARGE
    CONSTANT 0.003641
END PERIOD
