# IC6 input file, prepared by MF5to6 on 5/6/2019 at 9:48:52.

BEGIN Options
END Options

BEGIN GRIDDATA
  STRT LAYERED
    INTERNAL  FACTOR    1.000000      IPRN  1
   45.00000       45.00000       45.00000       45.00000       45.00000       45.00000       45.00000       45.00000       45.00000       45.00000    
   45.00000       45.00000       45.00000       45.00000       45.00000       45.00000       45.00000       45.00000       45.00000       45.00000    
   45.00000       45.00000       45.00000       45.00000       45.00000       45.00000       45.00000       45.00000       45.00000       45.00000    
   45.00000       45.00000       45.00000       45.00000       45.00000       45.00000       45.00000       45.00000       45.00000       45.00000    
   45.00000       45.00000       45.00000       45.00000       45.00000       45.00000       45.00000       45.00000       45.00000       45.00000    
   45.00000       45.00000       45.00000       45.00000       45.00000       45.00000       45.00000       45.00000       45.00000       45.00000    
   45.00000       45.00000       45.00000       45.00000       45.00000       45.00000       45.00000       45.00000       45.00000       45.00000    
   45.00000       45.00000       45.00000       45.00000       45.00000       45.00000       45.00000       45.00000       45.00000       45.00000    
   45.00000       45.00000       45.00000       45.00000       45.00000       45.00000       45.00000       45.00000       45.00000       45.00000    
   45.00000       45.00000       45.00000       45.00000       45.00000       45.00000       45.00000       45.00000       45.00000       45.00000    
   45.00000       45.00000       45.00000       45.00000       45.00000       45.00000       45.00000       45.00000       45.00000       45.00000    
   45.00000       45.00000       45.00000       45.00000       45.00000       45.00000       45.00000       45.00000       45.00000       45.00000    
   45.00000       45.00000       45.00000       45.00000       45.00000       45.00000       45.00000       45.00000       45.00000       45.00000    
   45.00000       45.00000       45.00000       45.00000       45.00000       45.00000       45.00000       45.00000       45.00000       45.00000    
   45.00000       45.00000       45.00000       45.00000       45.00000       45.00000       45.00000       45.00000       45.00000       45.00000    
   45.00000       45.00000       45.00000       45.00000       45.00000       45.00000       45.00000       45.00000       45.00000       45.00000    
   45.00000       45.00000       45.00000       45.00000       45.00000       45.00000       45.00000       45.00000       45.00000       45.00000    
   45.00000       45.00000       45.00000       45.00000       45.00000       45.00000       45.00000       45.00000       45.00000       45.00000    
   45.00000       45.00000       45.00000       45.00000       45.00000       45.00000       45.00000       45.00000       45.00000       45.00000    
   45.00000       45.00000       45.00000       45.00000       45.00000       45.00000       45.00000       45.00000       45.00000       45.00000    
   45.00000       45.00000       45.00000       45.00000       45.00000       45.00000       45.00000       45.00000       45.00000       45.00000    
   45.00000       45.00000       45.00000       45.00000       45.00000       45.00000       45.00000       45.00000       45.00000       45.00000    
   45.00000       45.00000       45.00000       45.00000       45.00000       45.00000       45.00000       45.00000       45.00000       45.00000    
   45.00000       45.00000       45.00000       45.00000       45.00000       45.00000       45.00000       45.00000       45.00000       45.00000    
   45.00000       45.00000       45.00000       45.00000       45.00000       45.00000       45.00000       45.00000       45.00000       45.00000    
   45.00000       45.00000       45.00000       45.00000       45.00000       45.00000       45.00000       45.00000       45.00000       45.00000    
   45.00000       45.00000       45.00000       45.00000       45.00000       45.00000       45.00000       45.00000       45.00000       45.00000    
   45.00000       45.00000       45.00000       45.00000       45.00000       45.00000       45.00000       45.00000       45.00000       45.00000    
   45.00000       45.00000       45.00000       45.00000       45.00000       45.00000       45.00000       45.00000       45.00000       45.00000    
   45.00000       45.00000       45.00000       45.00000       45.00000       45.00000       45.00000       45.00000       45.00000       45.00000    
   45.00000       45.00000       45.00000       45.00000       45.00000       45.00000       45.00000       45.00000       45.00000       45.00000    
   45.00000       45.00000       45.00000       45.00000       45.00000       45.00000       45.00000       45.00000       45.00000       45.00000    
   45.00000       45.00000       45.00000       45.00000       45.00000       45.00000       45.00000       45.00000       45.00000       45.00000    
   45.00000       45.00000       45.00000       45.00000       45.00000       45.00000       45.00000       45.00000       45.00000       45.00000    
   45.00000       45.00000       45.00000       45.00000       45.00000       45.00000       45.00000       45.00000       45.00000       45.00000    
   45.00000       45.00000       45.00000       45.00000       45.00000       45.00000       45.00000       45.00000       45.00000       45.00000    
   45.00000       45.00000       45.00000       45.00000       45.00000       45.00000       45.00000       45.00000       45.00000       45.00000    
   45.00000       45.00000       45.00000       45.00000       45.00000       45.00000       45.00000       45.00000       45.00000       45.00000    
   45.00000       45.00000       45.00000       45.00000       45.00000       45.00000       45.00000       45.00000       45.00000       45.00000    
   45.00000       45.00000       45.00000       45.00000       45.00000       45.00000       45.00000       45.00000       45.00000       45.00000    
   45.00000       45.00000       45.00000       45.00000       45.00000       45.00000       45.00000       45.00000       45.00000       45.00000    
   45.00000       45.00000       45.00000       45.00000       45.00000       45.00000       45.00000       45.00000       45.00000       45.00000    
   45.00000       45.00000       45.00000       45.00000       45.00000       45.00000       45.00000       45.00000       45.00000       45.00000    
   45.00000       45.00000       45.00000       45.00000       45.00000       45.00000       45.00000       45.00000       45.00000       45.00000    
   45.00000       45.00000       45.00000       45.00000       45.00000       45.00000       45.00000       45.00000       45.00000       45.00000    
   45.00000       45.00000       45.00000       45.00000       45.00000       45.00000       45.00000       45.00000       45.00000       45.00000    
   45.00000       45.00000       45.00000       45.00000       45.00000       45.00000       45.00000       45.00000       45.00000       45.00000    
   45.00000       45.00000       45.00000       45.00000       45.00000       45.00000       45.00000       45.00000       45.00000       45.00000    
   45.00000       45.00000       45.00000       45.00000       45.00000       45.00000       45.00000       45.00000       45.00000       45.00000    
   45.00000       45.00000       45.00000       45.00000       45.00000       45.00000       45.00000       45.00000       45.00000       45.00000    
   45.00000       45.00000       45.00000       45.00000       45.00000       45.00000       45.00000       45.00000       45.00000       45.00000    
   45.00000       45.00000       45.00000       45.00000       45.00000       45.00000       45.00000       45.00000       45.00000       45.00000    
   45.00000       45.00000       45.00000       45.00000       45.00000       45.00000       45.00000       45.00000       45.00000       45.00000    
   45.00000       45.00000       45.00000       45.00000       45.00000       45.00000       45.00000       45.00000       45.00000       45.00000    
   45.00000       45.00000       45.00000       45.00000       45.00000       45.00000       45.00000       45.00000       45.00000       45.00000    
   45.00000       45.00000       45.00000       45.00000       45.00000       45.00000       45.00000       45.00000       45.00000       45.00000    
   45.00000       45.00000       45.00000       45.00000       45.00000       45.00000       45.00000       45.00000       45.00000       45.00000    
   45.00000       45.00000       45.00000       45.00000       45.00000       45.00000       45.00000       45.00000       45.00000       45.00000    
   45.00000       45.00000       45.00000       45.00000       45.00000       45.00000       45.00000       45.00000       45.00000       45.00000    
   45.00000       45.00000       45.00000       45.00000       45.00000       45.00000       45.00000       45.00000       45.00000       45.00000    
   45.00000       45.00000       45.00000       45.00000       45.00000       45.00000       45.00000       45.00000       45.00000       45.00000    
   45.00000       45.00000       45.00000       45.00000       45.00000       45.00000       45.00000       45.00000       45.00000       45.00000    
   45.00000       45.00000       45.00000       45.00000       45.00000       45.00000       45.00000       45.00000       45.00000       45.00000    
   45.00000       45.00000       45.00000       45.00000       45.00000       45.00000       45.00000       45.00000       45.00000       45.00000    
   45.00000       45.00000       45.00000       45.00000       45.00000       45.00000       45.00000       45.00000       45.00000       45.00000    
   45.00000       45.00000       45.00000       45.00000       45.00000       45.00000       45.00000       45.00000       45.00000       45.00000    
   45.00000       45.00000       45.00000       45.00000       45.00000       45.00000       45.00000       45.00000       45.00000       45.00000    
   45.00000       45.00000       45.00000       45.00000       45.00000       45.00000       45.00000       45.00000       45.00000       45.00000    
   45.00000       45.00000       45.00000       45.00000       45.00000       45.00000       45.00000       45.00000       45.00000       45.00000    
   45.00000       45.00000       45.00000       45.00000       45.00000       45.00000       45.00000       45.00000       45.00000       45.00000    
   45.00000       45.00000       45.00000       45.00000       45.00000       45.00000       45.00000       45.00000       45.00000       45.00000    
   45.00000       45.00000       45.00000       45.00000       45.00000       45.00000       45.00000       45.00000       45.00000       45.00000    
   45.00000       45.00000       45.00000       45.00000       45.00000       45.00000       45.00000       45.00000       45.00000       45.00000    
   45.00000       45.00000       45.00000       45.00000       45.00000       45.00000       45.00000       45.00000       45.00000       45.00000    
   45.00000       45.00000       45.00000       45.00000       45.00000       45.00000       45.00000       45.00000       45.00000       45.00000    
   45.00000       45.00000       45.00000       45.00000       45.00000       45.00000       45.00000       45.00000       45.00000       45.00000    
   45.00000       45.00000       45.00000       45.00000       45.00000       45.00000       45.00000       45.00000       45.00000       45.00000    
   45.00000       45.00000       45.00000       45.00000       45.00000       45.00000       45.00000       45.00000       45.00000       45.00000    
   45.00000       45.00000       45.00000       45.00000       45.00000       16.90000       16.40000       16.10000       15.60000       15.10000    
   14.00000       13.00000       12.50000       12.00000       11.40000       45.00000       45.00000       45.00000       45.00000       45.00000    
END GRIDDATA
