# TDIS6 input file, prepared by MF5to6 on 5/6/2019 at 9:48:52.

BEGIN Options
  TIME_UNITS SECONDS
END Options

BEGIN Dimensions
  NPER 1
END Dimensions

BEGIN PERIODDATA
    10.000000               1    1.2000000      Items: PERLEN NSTP TSMULT
END PERIODDATA
