# SFR package for  MODFLOW-NWT, generated by Flopy.
-353 14 0 0 128390.40000000 0.00010000 53 223 1 0 
1 64 119 1 1 86.92152 1087.1 0.000389 0.9 2.493963
1 64 118 1 2 11.18776 1087.066 0.003443 0.9 2.493963
1 63 118 1 3 141.9454 1087.028 0.000429 0.9 2.493963
1 63 117 1 4 100.3755 1086.967 0.000503 0.9 2.493963
1 63 116 1 5 100.2733 1086.916 0.000493 0.9 2.493963
1 63 115 1 6 96.17096 1086.867 0.000262 0.9 2.493963
1 62 115 1 7 4.102314 1086.842 0.006401 0.9 2.493963
1 62 114 1 8 100.2733 1086.815 0.000503 0.9 2.493963
1 62 113 1 9 100.2733 1086.765 0.000503 0.9 2.493963
1 62 112 1 10 100.2733 1086.714 0.000503 0.9 2.493963
1 62 111 1 11 100.2733 1086.664 0.000503 0.9 2.493963
1 62 110 1 12 100.3586 1086.613 0.000503 0.9 2.493963
1 62 109 1 13 100.3776 1086.563 0.000503 0.9 2.493963
1 62 108 1 14 100.3776 1086.512 0.000503 0.9 2.493963
1 62 107 1 15 100.3776 1086.462 0.000503 0.9 2.493963
1 62 106 1 16 100.3776 1086.411 0.000503 0.9 2.493963
1 62 105 1 17 100.3084 1086.361 0.000503 0.9 2.493963
1 62 104 1 18 100.2959 1086.31 0.000404 0.9 2.493963
1 62 103 1 19 1.0 1086.27 0.000667 0.9 0.0
1 48 114 2 1 9.632829 1091.0 0.000308 0.9 2.493963
1 49 114 2 2 100.0047 1090.997 1e-04 0.9 2.493963
1 50 114 2 3 100.0047 1090.992 1e-04 0.9 2.493963
1 51 114 2 4 100.0047 1090.986 1e-04 0.9 2.493963
1 52 114 2 5 100.0047 1090.981 1e-04 0.9 2.493963
1 53 114 2 6 100.0047 1090.975 1e-04 0.9 2.493963
1 54 114 2 7 100.0047 1090.97 0.00377 0.9 2.493963
1 55 114 2 8 100.0047 1090.593 0.002332 0.9 2.493963
1 56 114 2 9 1.0 1090.36 0.009833 0.9 0.0
1 42 102 3 1 44.77835 1089.0 0.003994 0.9 2.493963
1 43 102 3 2 100.0216 1088.821 0.00247 0.9 2.493963
1 44 102 3 3 100.0216 1088.574 0.00247 0.9 2.493963
1 45 102 3 4 100.0216 1088.327 0.00247 0.9 2.493963
1 46 102 3 5 100.0216 1088.08 0.000971 0.9 2.493963
1 47 102 3 6 100.0216 1087.983 0.000971 0.9 2.493963
1 48 102 3 7 100.0216 1087.886 0.000971 0.9 2.493963
1 49 102 3 8 100.0216 1087.789 0.000971 0.9 2.493963
1 50 102 3 9 100.0216 1087.691 0.000899 0.9 2.493963
1 51 102 3 10 85.12561 1087.602 0.000571 0.9 2.493963
1 51 103 3 11 14.89601 1087.553 0.003746 0.9 2.493963
1 52 103 3 12 100.0216 1087.497 0.000971 0.9 2.493963
1 53 103 3 13 100.0216 1087.4 0.004321 0.9 2.493963
1 54 103 3 14 100.0216 1086.968 0.003077 0.9 2.493963
1 55 103 3 15 1.0 1086.66 0.007251 0.9 0.0
1 81 103 4 1 45.58999 1087.0 0.004979 0.9 2.493963
1 80 103 4 2 100.0583 1086.773 0.003117 0.9 2.493963
1 79 103 4 3 100.0583 1086.461 0.003117 0.9 2.493963
1 78 103 4 4 100.0583 1086.149 0.003117 0.9 2.493963
1 77 103 4 5 100.0583 1085.837 0.003117 0.9 2.493963
1 76 103 4 6 100.0583 1085.526 0.003117 0.9 2.493963
1 75 103 4 7 100.0583 1085.214 0.003117 0.9 2.493963
1 74 103 4 8 100.0583 1084.902 0.003117 0.9 2.493963
1 73 103 4 9 100.0583 1084.59 1e-04 0.9 2.493963
1 72 103 4 10 1.0 1084.59 1e-04 0.9 0.0
1 82 87 5 1 67.68914 1089.0 0.004185 0.9 2.493963
1 81 87 5 2 100.0041 1088.717 0.003379 0.9 2.493963
1 80 87 5 3 100.0041 1088.379 0.003379 0.9 2.493963
1 79 87 5 4 100.0041 1088.041 0.003379 0.9 2.493963
1 78 87 5 5 100.0041 1087.703 0.003379 0.9 2.493963
1 77 87 5 6 100.0041 1087.365 0.003379 0.9 2.493963
1 76 87 5 7 100.0041 1087.027 0.003379 0.9 2.493963
1 75 87 5 8 100.0041 1086.689 0.003379 0.9 2.493963
1 74 87 5 9 100.0041 1086.352 0.003379 0.9 2.493963
1 73 87 5 10 100.0041 1086.014 0.003379 0.9 2.493963
1 72 87 5 11 100.0041 1085.676 0.003379 0.9 2.493963
1 71 87 5 12 100.0041 1085.338 0.003379 0.9 2.493963
1 70 87 5 13 100.0041 1085.0 0.003379 0.9 2.493963
1 62 103 6 1 125.1422 1087.27 0.002715 0.9 2.493963
1 63 103 6 2 100.0523 1086.998 0.002715 0.9 2.493963
1 64 103 6 3 100.0523 1086.727 0.002715 0.9 2.493963
1 65 103 6 4 100.0523 1086.455 0.002715 0.9 2.493963
1 66 103 6 5 100.0523 1086.184 0.002715 0.9 2.493963
1 67 103 6 6 100.0523 1085.912 0.002715 0.9 2.493963
1 68 103 6 7 100.0523 1085.64 0.002715 0.9 2.493963
1 69 103 6 8 100.0523 1085.369 0.002715 0.9 2.493963
1 70 103 6 9 100.0523 1085.097 0.002715 0.9 2.493963
1 71 103 6 10 100.0523 1084.826 0.002355 0.9 2.493963
1 72 103 6 11 1.0 1084.59 0.003205 0.9 0.0
1 56 114 7 1 103.0211 1090.36 0.002205 0.9 2.493963
1 56 113 7 2 100.2907 1090.315 0.000745 0.9 2.493963
1 56 112 7 3 100.2633 1090.24 0.002244 0.9 2.493963
1 56 111 7 4 100.2634 1090.015 0.002244 0.9 2.493963
1 55 110 7 5 100.2632 1089.79 0.002244 0.9 2.493963
1 55 109 7 6 100.2633 1089.565 0.002244 0.9 2.493963
1 55 108 7 7 100.2633 1089.34 0.003376 0.9 2.493963
1 55 107 7 8 100.2634 1089.001 0.003376 0.9 2.493963
1 55 106 7 9 100.2635 1088.663 0.003376 0.9 2.493963
1 55 105 7 10 100.2635 1088.324 0.003376 0.9 2.493963
1 55 104 7 11 100.2635 1087.986 0.003251 0.9 2.493963
1 55 103 7 12 1.0 1087.66 0.003512 0.9 0.0
1 67 121 8 1 92.89867 1085.42 0.002652 0.9 2.493963
1 67 120 8 2 100.5293 1085.173 0.002509 0.9 2.493963
1 67 119 8 3 100.8165 1084.921 0.000132 0.9 2.493963
1 67 118 8 4 119.777 1084.908 1e-04 0.9 2.493963
1 67 117 8 5 85.61979 1084.908 1e-04 0.9 2.493963
1 68 117 8 6 23.14144 1084.908 1e-04 0.9 2.493963
1 68 116 8 7 117.2155 1084.907 1e-04 0.9 2.493963
1 68 115 8 8 47.18509 1084.907 1e-04 0.9 2.493963
1 69 115 8 9 86.93225 1084.907 1e-04 0.9 2.493963
1 69 114 8 10 73.4937 1084.907 1e-04 0.9 2.493963
1 70 114 8 11 51.7474 1084.904 1e-04 0.9 2.493963
1 70 113 8 12 104.1973 1084.9 1e-04 0.9 2.493963
1 70 112 8 13 103.6358 1084.894 1e-04 0.9 2.493963
1 71 112 8 14 7.889165 1084.891 1e-04 0.9 2.493963
1 71 111 8 15 10.44923 1084.891 0.000273 0.9 2.493963
1 70 111 8 16 97.09497 1084.888 1e-04 0.9 2.493963
1 70 110 8 17 110.2359 1084.882 1e-04 0.9 2.493963
1 71 109 8 18 146.5618 1084.875 0.003585 0.9 2.493963
1 71 108 8 19 72.51973 1084.35 1e-04 0.9 2.493963
1 72 108 8 20 1.0 1084.35 1e-04 0.9 0.0
1 72 107 8 21 1.0 1084.35 1e-04 0.9 0.0
1 72 107 9 1 1.0 1086.35 0.005601 0.9 0.0
1 72 107 9 2 139.2429 1086.051 0.013953 0.9 2.493963
1 72 106 9 3 111.616 1085.556 0.003541 0.9 2.493963
1 72 105 9 4 5.875896 1085.161 0.062815 0.9 2.493963
1 73 105 9 5 103.832 1084.792 0.004828 0.9 2.493963
1 73 104 9 6 45.17534 1084.291 0.008072 0.9 2.493963
1 72 104 9 7 63.21559 1083.926 0.005316 0.9 2.493963
1 72 103 9 8 1.0 1083.59 0.009165 0.9 0.0
1 20 125 10 1 22.05676 1097.0 0.000216 0.9 2.493963
1 21 125 10 2 100.01 1096.995 1e-04 0.9 2.493963
1 22 125 10 3 100.01 1096.987 1e-04 0.9 2.493963
1 23 125 10 4 100.01 1096.98 1e-04 0.9 2.493963
1 24 125 10 5 100.01 1096.972 1e-04 0.9 2.493963
1 25 125 10 6 100.01 1096.964 1e-04 0.9 2.493963
1 26 125 10 7 100.01 1096.956 1e-04 0.9 2.493963
1 27 125 10 8 100.01 1096.948 1e-04 0.9 2.493963
1 28 125 10 9 100.01 1096.941 1e-04 0.9 2.493963
1 29 125 10 10 100.01 1096.933 1e-04 0.9 2.493963
1 30 125 10 11 100.01 1096.925 1e-04 0.9 2.493963
1 31 125 10 12 100.01 1096.917 1e-04 0.9 2.493963
1 32 125 10 13 100.01 1096.909 0.000742 0.9 2.493963
1 33 125 10 14 100.01 1096.835 0.000859 0.9 2.493963
1 34 125 10 15 100.01 1096.749 0.001357 0.9 2.493963
1 35 125 10 16 100.01 1096.613 0.003366 0.9 2.493963
1 36 125 10 17 100.0474 1096.277 0.003555 0.9 2.493963
1 37 125 10 18 100.0567 1095.921 0.001527 0.9 2.493963
1 38 125 10 19 100.0567 1095.768 0.003533 0.9 2.493963
1 39 125 10 20 100.0567 1095.415 0.005155 0.9 2.493963
1 40 125 10 21 100.0567 1094.899 0.005855 0.9 2.493963
1 41 125 10 22 100.0567 1094.313 0.004936 0.9 2.493963
1 42 125 10 23 100.0567 1093.819 0.002995 0.9 2.493963
1 43 125 10 24 1.0 1093.52 0.007094 0.9 0.0
1 43 125 10 25 99.95156 1093.418 0.002291 0.9 2.493963
1 44 125 10 26 107.8644 1093.221 0.001496 0.9 2.493963
1 45 125 10 27 31.45823 1093.06 0.003998 0.9 2.493963
1 45 124 10 28 77.13689 1092.934 0.002774 0.9 2.493963
1 46 124 10 29 107.5992 1092.72 0.001047 0.9 2.493963
1 47 124 10 30 93.61168 1092.607 0.000666 0.9 2.493963
1 47 123 10 31 17.82513 1092.545 0.004058 0.9 2.493963
1 48 123 10 32 111.4368 1092.473 0.001049 0.9 2.493963
1 49 123 10 33 97.35162 1092.356 0.000125 0.9 2.493963
1 49 122 10 34 14.08519 1092.344 0.000972 0.9 2.493963
1 50 122 10 35 111.4368 1092.33 0.006375 0.9 2.493963
1 51 122 10 36 102.9952 1091.62 0.001968 0.9 2.493963
1 51 121 10 37 7.950748 1091.417 0.027318 0.9 2.493963
1 52 121 10 38 110.9349 1091.2 0.003654 0.9 2.493963
1 53 121 10 39 110.9349 1090.794 0.001846 0.9 2.493963
1 54 121 10 40 1.165904 1090.59 0.048295 0.9 2.493963
1 54 120 10 41 109.769 1090.533 0.001021 0.9 2.493963
1 55 120 10 42 110.9349 1090.421 0.000555 0.9 2.493963
1 56 120 10 43 10.28256 1090.36 1e-04 0.9 2.493963
1 56 119 10 44 122.8417 1090.36 1e-04 0.9 2.493963
1 56 118 10 45 100.2102 1090.36 1e-04 0.9 2.493963
1 56 117 10 46 100.2102 1090.36 1e-04 0.9 2.493963
1 56 116 10 47 100.2102 1090.36 1e-04 0.9 2.493963
1 56 115 10 48 100.2505 1090.36 1e-04 0.9 2.493963
1 56 114 10 49 1.0 1090.36 1e-04 0.9 0.0
1 69 87 11 1 117.2413 1084.0 0.000977 0.9 2.493963
1 68 87 11 2 12.80797 1083.976 0.004061 0.9 2.493963
1 68 86 11 3 46.26682 1083.888 0.001928 0.9 2.493963
1 69 86 11 4 55.04507 1083.783 0.002501 0.9 2.493963
1 69 85 11 5 101.3119 1083.59 0.001415 0.9 2.493963
1 69 84 11 6 61.46218 1083.473 0.001619 0.9 2.493963
1 68 84 11 7 51.52675 1083.375 0.002736 0.9 2.493963
1 68 83 11 8 108.5993 1083.169 0.001693 0.9 2.493963
1 68 82 11 9 100.275 1082.978 0.001772 0.9 2.493963
1 68 81 11 10 101.5526 1082.785 0.001771 0.9 2.493963
1 68 80 11 11 102.6842 1082.589 0.001196 0.9 2.493963
1 68 79 11 12 36.74282 1082.52 0.002463 0.9 2.493963
1 69 79 11 13 66.0202 1082.394 0.002251 0.9 2.493963
1 69 78 11 14 102.763 1082.199 0.001761 0.9 2.493963
1 69 77 11 15 102.763 1082.003 0.001761 0.9 2.493963
1 69 76 11 16 102.763 1081.808 0.001748 0.9 2.493963
1 69 75 11 17 101.2357 1081.615 0.001752 0.9 2.493963
1 70 74 11 18 100.1639 1081.424 0.00143 0.9 2.493963
1 70 73 11 19 62.55514 1081.305 0.001482 0.9 2.493963
1 69 73 11 20 42.72111 1081.224 0.003105 0.9 2.493963
1 69 72 11 21 107.9558 1081.019 0.001593 0.9 2.493963
1 69 71 11 22 87.40738 1080.853 0.001152 0.9 2.493963
1 68 71 11 23 30.21492 1080.795 0.004328 0.9 2.493963
1 68 70 11 24 122.473 1080.562 0.001 0.9 2.493963
1 68 69 11 25 20.52128 1080.523 0.004794 0.9 2.493963
1 67 69 11 26 94.3555 1080.344 0.001724 0.9 2.493963
1 67 68 11 27 95.56362 1080.162 0.000922 0.9 2.493963
1 68 68 11 28 7.264463 1080.148 0.007322 0.9 2.493963
1 68 67 11 29 1.0 1080.044 0.001129 0.9 0.0
1 68 67 11 30 72.29039 1080.01 0.006206 0.9 2.493963
1 67 67 11 31 109.1353 1079.803 0.001188 0.9 2.493963
1 66 67 11 32 42.29184 1079.722 0.002109 0.9 2.493963
1 66 66 11 33 61.86366 1079.605 0.002558 0.9 2.493963
1 65 66 11 34 122.8844 1079.371 0.001341 0.9 2.493963
1 65 65 11 35 69.55744 1079.239 0.001287 0.9 2.493963
1 64 65 11 36 35.01092 1079.172 0.003374 0.9 2.493963
1 64 64 11 37 102.9245 1078.976 0.001689 0.9 2.493963
1 64 63 11 38 100.0017 1078.786 1e-04 0.9 2.493963
1 64 62 11 39 100.0017 1078.596 1e-04 0.9 2.493963
1 64 61 11 40 100.0017 1078.406 1e-04 0.9 2.493963
1 64 60 11 41 112.4065 1078.192 1e-04 0.9 2.493963
1 63 60 11 42 41.92751 1078.112 1e-04 0.9 2.493963
1 63 59 11 43 64.12982 1077.99 1e-04 0.9 2.493963
1 62 59 11 44 82.21349 1077.834 1e-04 0.9 2.493963
1 62 58 11 45 81.0144 1077.68 1e-04 0.9 2.493963
1 63 58 11 46 42.15815 1077.599 1e-04 0.9 2.493963
1 63 57 11 47 92.27561 1077.424 1e-04 0.9 2.493963
1 64 57 11 48 56.96767 1077.316 1e-04 0.9 2.493963
1 64 56 11 49 100.0684 1077.125 0.001002 0.9 2.493963
1 64 55 11 50 100.3075 1076.934 0.000683 0.9 2.493963
1 64 54 11 51 101.0934 1076.742 0.00044 0.9 2.493963
1 64 53 11 52 18.25351 1076.707 0.008005 0.9 2.493963
1 63 53 11 53 82.83993 1076.55 0.009316 0.9 2.493963
1 63 52 11 54 126.1182 1076.31 0.006284 0.9 2.493963
1 62 52 11 55 14.51269 1076.282 0.040938 0.9 2.493963
1 62 51 11 56 90.91699 1076.109 0.003545 0.9 2.493963
1 63 51 11 57 24.54328 1076.063 0.015298 0.9 2.493963
1 63 50 11 58 109.974 1075.853 0.001201 0.9 2.493963
1 63 49 11 59 62.74959 1075.734 0.001567 0.9 2.493963
1 64 49 11 60 65.8821 1075.609 0.001945 0.9 2.493963
1 64 48 11 61 101.7269 1075.415 0.001535 0.9 2.493963
1 64 47 11 62 102.4725 1075.22 1e-04 0.9 2.493963
1 64 46 11 63 103.8406 1075.023 1e-04 0.9 2.493963
1 64 45 11 64 125.387 1074.784 1e-04 0.9 2.493963
1 64 44 11 65 23.19054 1074.74 0.000131 0.9 2.493963
1 65 44 11 66 106.2153 1074.538 1e-04 0.9 2.493963
1 65 43 11 67 74.02272 1074.397 1e-04 0.9 2.493963
1 64 43 11 68 37.87194 1074.325 1e-04 0.9 2.493963
1 64 42 11 69 105.5316 1074.125 1e-04 0.9 2.493963
1 64 41 11 70 104.6782 1073.925 1e-04 0.9 2.493963
1 64 40 11 71 100.2621 1073.735 1e-04 0.9 2.493963
1 64 39 11 72 100.2123 1073.544 1e-04 0.9 2.493963
1 64 38 11 73 63.12668 1073.424 1e-04 0.9 2.493963
1 63 38 11 74 48.78628 1073.331 1e-04 0.9 2.493963
1 63 37 11 75 106.3876 1073.129 1e-04 0.9 2.493963
1 62 37 11 76 24.39011 1073.082 0.000133 0.9 2.493963
1 62 36 11 77 113.8861 1072.866 0.003412 0.9 2.493963
1 62 35 11 78 104.8102 1072.666 0.000889 0.9 2.493963
1 62 34 11 79 10.0881 1072.647 0.015247 0.9 2.493963
1 61 34 11 80 94.72213 1072.467 0.003587 0.9 2.493963
1 61 33 11 81 102.3391 1072.272 0.000293 0.9 2.493963
1 61 32 11 82 102.0743 1072.078 0.001107 0.9 2.493963
1 61 31 11 83 102.0743 1071.884 0.001299 0.9 2.493963
1 61 30 11 84 45.65064 1071.797 0.001093 0.9 2.493963
1 60 30 11 85 56.4237 1071.69 0.001406 0.9 2.493963
1 60 29 11 86 105.8406 1071.489 0.000862 0.9 2.493963
1 60 28 11 87 108.0156 1071.283 0.001346 0.9 2.493963
1 60 27 11 88 18.15536 1071.249 0.008398 0.9 2.493963
1 59 27 11 89 1.0 1071.048 0.000811 0.9 0.0
1 58 27 11 90 5.656077 1071.037 0.001384 0.9 2.493963
1 59 27 11 91 163.0137 1070.928 0.000331 0.9 2.493963
1 59 26 11 92 97.47047 1070.742 0.028835 0.9 2.493963
1 58 26 11 93 11.62623 1070.72 0.0057 0.9 2.493963
1 58 25 11 94 109.6161 1070.654 0.001093 0.9 2.493963
1 58 24 11 95 109.6579 1070.534 0.000606 0.9 2.493963
1 58 23 11 96 12.00368 1070.467 0.005086 0.9 2.493963
1 57 23 11 97 99.69148 1070.406 0.001134 0.9 2.493963
1 57 22 11 98 107.082 1070.293 0.000811 0.9 2.493963
1 57 21 11 99 51.7923 1070.206 0.001096 0.9 2.493963
1 56 21 11 100 52.05864 1070.15 0.00161 0.9 2.493963
1 56 20 11 101 101.2731 1070.066 0.001093 0.9 2.493963
1 56 19 11 102 101.2731 1069.955 0.001098 0.9 2.493963
1 56 18 11 103 102.1797 1069.844 0.001095 0.9 2.493963
1 56 17 11 104 102.5471 1069.732 0.001085 0.9 2.493963
1 56 16 11 105 101.0856 1069.621 0.000595 0.9 2.493963
1 56 15 11 106 8.960502 1069.561 0.006629 0.9 2.493963
1 55 15 11 107 99.70265 1069.501 0.001153 0.9 2.493963
1 55 14 11 108 110.6006 1069.386 0.001047 0.9 2.493963
1 55 13 11 109 101.3111 1069.27 0.00109 0.9 2.493963
1 55 12 11 110 100.6884 1069.16 0.001004 0.9 2.493963
1 55 11 11 111 5.728709 1069.059 0.016879 0.9 2.493963
1 54 11 11 112 96.09506 1068.962 0.001318 0.9 2.493963
1 54 10 11 113 37.2744 1068.836 0.003072 0.9 2.493963
1 55 10 11 114 83.3163 1068.721 0.002012 0.9 2.493963
1 55 9 11 115 93.1881 1068.553 0.001237 0.9 2.493963
1 56 9 11 116 28.16791 1068.438 0.002528 0.9 2.493963
1 56 8 11 117 46.81115 1068.367 0.002249 0.9 2.493963
1 55 8 11 118 64.04959 1068.262 0.002588 0.9 2.493963
1 55 7 11 119 110.5037 1068.096 0.001469 0.9 2.493963
1 55 6 11 120 60.45055 1067.934 0.001735 0.9 2.493963
1 54 6 11 121 49.98201 1067.829 0.002956 0.9 2.493963
1 54 5 11 122 105.5806 1067.681 0.001899 0.9 2.493963
1 54 4 11 123 105.5806 1067.481 0.001262 0.9 2.493963
1 54 3 11 124 34.75127 1067.347 0.002872 0.9 2.493963
1 53 3 11 125 70.35977 1067.247 0.002347 0.9 2.493963
1 53 2 11 126 103.5697 1067.082 0.001899 0.9 2.493963
1 53 1 11 127 103.5697 1066.886 0.001876 0.9 2.493963
1 80 125 12 1 96.32087 1088.0 1e-04 0.9 2.493963
1 80 124 12 2 85.81892 1087.993 1e-04 0.9 2.493963
1 79 124 12 3 29.21257 1087.988 0.000186 0.9 2.493963
1 79 123 12 4 107.9489 1087.983 1e-04 0.9 2.493963
1 79 122 12 5 100.015 1087.975 1e-04 0.9 2.493963
1 79 121 12 6 100.015 1087.967 0.002795 0.9 2.493963
1 79 120 12 7 100.007 1087.687 0.003498 0.9 2.493963
1 79 119 12 8 100.0 1087.337 0.002626 0.9 2.493963
1 79 118 12 9 100.0 1087.075 0.001141 0.9 2.493963
1 79 117 12 10 100.0 1086.961 0.000533 0.9 2.493963
1 79 116 12 11 106.8319 1086.907 1e-04 0.9 2.493963
1 79 115 12 12 108.319 1086.906 1e-04 0.9 2.493963
1 79 114 12 13 155.636 1086.905 1e-04 0.9 2.493963
1 78 114 12 14 3.810372 1086.903 0.00035 0.9 2.493963
1 78 113 12 15 100.3553 1086.902 1e-04 0.9 2.493963
1 77 113 12 16 123.5139 1086.899 1e-04 0.9 2.493963
1 77 112 12 17 39.27598 1086.897 1e-04 0.9 2.493963
1 76 112 12 18 68.87358 1086.895 1e-04 0.9 2.493963
1 76 111 12 19 118.4966 1086.893 1e-04 0.9 2.493963
1 75 111 12 20 13.10913 1086.891 0.00014 0.9 2.493963
1 75 110 12 21 129.564 1086.889 1e-04 0.9 2.493963
1 74 110 12 22 10.26863 1086.887 0.000171 0.9 2.493963
1 74 109 12 23 126.3411 1086.886 1e-04 0.9 2.493963
1 74 108 12 24 26.00039 1086.884 1e-04 0.9 2.493963
1 73 108 12 25 124.8987 1086.882 1e-04 0.9 2.493963
1 72 108 12 26 64.27794 1086.874 0.013719 0.9 2.493963
1 72 107 12 27 1.0 1086.35 0.010157 0.9 0.0
1 55 103 13 1 159.1035 1086.66 0.000347 0.9 2.493963
1 56 103 13 2 100.0523 1086.64 0.00074 0.9 2.493963
1 57 103 13 3 100.0523 1086.566 0.00074 0.9 2.493963
1 58 103 13 4 100.0523 1086.492 0.00074 0.9 2.493963
1 59 103 13 5 100.0523 1086.418 0.00074 0.9 2.493963
1 60 103 13 6 100.0523 1086.344 0.00074 0.9 2.493963
1 61 103 13 7 100.0523 1086.27 0.00074 0.9 2.493963
1 72 103 14 1 148.898 1085.59 0.001228 0.9 2.493963
1 72 102 14 2 130.1746 1085.512 0.000408 0.9 2.493963
1 71 102 14 3 1.718331 1085.459 0.027188 0.9 2.493963
1 71 101 14 4 114.2131 1085.412 0.000623 0.9 2.493963
1 70 101 14 5 62.2557 1085.341 0.001102 0.9 2.493963
1 70 100 14 6 108.0057 1085.272 0.000782 0.9 2.493963
1 70 99 14 7 101.7048 1085.188 0.000881 0.9 2.493963
1 70 98 14 8 120.7662 1085.098 0.000441 0.9 2.493963
1 70 97 14 9 11.495 1085.045 0.004014 0.9 2.493963
1 71 97 14 10 102.992 1084.999 0.000799 0.9 2.493963
1 71 96 14 11 101.0919 1084.916 0.000468 0.9 2.493963
1 72 96 14 12 16.32143 1084.869 0.003312 0.9 2.493963
1 72 95 14 13 117.8339 1084.815 0.000809 0.9 2.493963
1 72 94 14 14 118.8171 1084.72 0.000727 0.9 2.493963
1 72 93 14 15 95.54645 1084.633 0.000768 0.9 2.493963
1 71 93 14 16 86.62474 1084.56 0.000529 0.9 2.493963
1 71 92 14 17 27.06524 1084.514 0.002317 0.9 2.493963
1 70 92 14 18 128.5372 1084.451 0.000427 0.9 2.493963
1 69 92 14 19 7.770596 1084.397 0.006368 0.9 2.493963
1 69 91 14 20 115.0208 1084.347 0.000756 0.9 2.493963
1 69 90 14 21 100.7069 1084.26 0.000631 0.9 2.493963
1 70 90 14 22 56.96648 1084.197 0.001191 0.9 2.493963
1 70 89 14 23 111.3872 1084.129 0.000706 0.9 2.493963
1 70 88 14 24 83.72074 1084.05 0.000598 0.9 2.493963
1 69 88 14 25 40.57452 1084.0 0.001234 0.9 2.493963
14 0 0
1 1 6 0 0 0 0 0 0.037 
0.620534 
2.774779 
2 1 7 0 0 0 0 0 0.037 
0.205126 
1.814811 
3 1 13 0 0 0 0 0 0.037 
0.444441 
2.408902 
4 1 14 0 0 0 0 0 0.037 
0.448477 
1.980678 
5 1 11 0 0 0 0 0 0.037 
0.54716 
2.390239 
6 1 14 0 0 0 0 0 0.037 
6.710279 
7.035985 
7 1 13 0 0 0 0 0 0.037 
4.774992 
5.274111 
8 1 9 0 0 0 0 0 0.037 
0.641651 
2.68841 
9 1 14 0 0 0 0 0 0.037 
4.217789 
4.430135 
10 1 7 0 0 0 0 0 0.037 
0.31122 
4.399238 
11 1 0 0 0 0 0 0 0.037 
9.441734 
13.04229 
12 1 9 0 0 0 0 0 0.037 
0.653439 
3.200394 
13 1 6 0 0 0 0 0 0.037 
5.829459 
6.06111 
14 1 11 0 0 0 0 0 0.037 
8.585501 
9.097009 
-14 0 0
-14 0 0
-14 0 0
-14 0 0
-14 0 0
-14 0 0
-14 0 0
-14 0 0
-14 0 0
-14 0 0
-14 0 0
