# DIS package for  MODFLOW-NWT, generated by Flopy.
         3       137       171        12         4         1
  0  0  0
OPEN/CLOSE               external/delr.ref               1 (171E15.6) -1 delr                          
OPEN/CLOSE               external/delc.ref               1 (137E15.6) -1 delc                          
OPEN/CLOSE                external/top.dat               1     (FREE) -1 model_top                     
OPEN/CLOSE              external/botm0.dat               1     (FREE) -1 botm layer 1                  
OPEN/CLOSE              external/botm1.dat               1     (FREE) -1 botm layer 2                  
OPEN/CLOSE              external/botm2.dat               1     (FREE) -1 botm layer 3                  
     31.000000             5  1.200000  TR 
     28.000000             5  1.200000  TR 
     31.000000             5  1.200000  TR 
     30.000000             5  1.200000  TR 
     31.000000             5  1.200000  TR 
     30.000000             5  1.200000  TR 
     31.000000             5  1.200000  TR 
     31.000000             5  1.200000  TR 
     30.000000             5  1.200000  TR 
     31.000000             5  1.200000  TR 
     30.000000             5  1.200000  TR 
     31.000000             5  1.200000  TR 
