72 536 -999 # HYD package for  MODFLOW-NWT, generated by Flopy.
BAS HD I 1 1912.451904296875 632.1219482421875 00910042_uwsp 
BAS HD I 2 1912.451904296875 632.1219482421875 00910042_uwsp 
BAS HD I 3 1912.451904296875 632.1219482421875 00910042_uwsp 
BAS HD I 1 1177.9219970703125 3248.40185546875 00940041_uwsp 
BAS HD I 2 1177.9219970703125 3248.40185546875 00940041_uwsp 
BAS HD I 3 1177.9219970703125 3248.40185546875 00940041_uwsp 
BAS HD I 1 3336.19189453125 2520.451904296875 2309e1803_uwsp 
BAS HD I 2 3336.19189453125 2520.451904296875 2309e1803_uwsp 
BAS HD I 3 3336.19189453125 2520.451904296875 2309e1803_uwsp 
BAS HD I 1 3791.572021484375 394.31195068359375 2309e3000_uwsp 
BAS HD I 2 3791.572021484375 394.31195068359375 2309e3000_uwsp 
BAS HD I 3 3791.572021484375 394.31195068359375 2309e3000_uwsp 
BAS HD I 1 1716.157958984375 41.976558685302734 2702089302201 
BAS HD I 2 1716.157958984375 41.976558685302734 2702089302201 
BAS HD I 3 1716.157958984375 41.976558685302734 2702089302201 
BAS HD I 1 3791.57861328125 394.3083190917969 2713089284801 
BAS HD I 2 3791.57861328125 394.3083190917969 2713089284801 
BAS HD I 3 3791.57861328125 394.3083190917969 2713089284801 
BAS HD I 1 873.9246215820312 438.0488586425781 2715089310001 
BAS HD I 2 873.9246215820312 438.0488586425781 2715089310001 
BAS HD I 3 873.9246215820312 438.0488586425781 2715089310001 
BAS HD I 1 4011.991455078125 488.28564453125 2716089283801 
BAS HD I 2 4011.991455078125 488.28564453125 2716089283801 
BAS HD I 3 4011.991455078125 488.28564453125 2716089283801 
BAS HD I 1 1049.9986572265625 562.520751953125 2719089305201 
BAS HD I 2 1049.9986572265625 562.520751953125 2719089305201 
BAS HD I 3 1049.9986572265625 562.520751953125 2719089305201 
BAS HD I 1 871.1987915039062 900.8670043945312 2730089310001 
BAS HD I 2 871.1987915039062 900.8670043945312 2730089310001 
BAS HD I 3 871.1987915039062 900.8670043945312 2730089310001 
BAS HD I 1 1952.172119140625 1215.91943359375 2740089301101 
BAS HD I 2 1952.172119140625 1215.91943359375 2740089301101 
BAS HD I 3 1952.172119140625 1215.91943359375 2740089301101 
BAS HD I 1 514.00732421875 1515.86669921875 2750089311601 
BAS HD I 2 514.00732421875 1515.86669921875 2750089311601 
BAS HD I 3 514.00732421875 1515.86669921875 2750089311601 
BAS HD I 1 865.7385864257812 1826.4964599609375 2800089310001 
BAS HD I 2 865.7385864257812 1826.4964599609375 2800089310001 
BAS HD I 3 865.7385864257812 1826.4964599609375 2800089310001 
BAS HD I 1 2078.185546875 2296.627685546875 2815089300501 
BAS HD I 2 2078.185546875 2296.627685546875 2815089300501 
BAS HD I 3 2078.185546875 2296.627685546875 2815089300501 
BAS HD I 1 1658.0234375 2355.785888671875 2817089302401 
BAS HD I 2 1658.0234375 2355.785888671875 2817089302401 
BAS HD I 3 1658.0234375 2355.785888671875 2817089302401 
BAS HD I 1 1591.7447509765625 2355.38427734375 2817089302701 
BAS HD I 2 1591.7447509765625 2355.38427734375 2817089302701 
BAS HD I 3 1591.7447509765625 2355.38427734375 2817089302701 
BAS HD I 1 3336.191650390625 2520.4482421875 2822089290801 
BAS HD I 2 3336.191650390625 2520.4482421875 2822089290801 
BAS HD I 3 3336.191650390625 2520.4482421875 2822089290801 
BAS HD I 1 2295.539306640625 2884.2197265625 2834089295501 
BAS HD I 2 2295.539306640625 2884.2197265625 2834089295501 
BAS HD I 3 2295.539306640625 2884.2197265625 2834089295501 
BAS HD I 1 2515.317626953125 3070.711181640625 2840089294501 
BAS HD I 2 2515.317626953125 3070.711181640625 2840089294501 
BAS HD I 3 2515.317626953125 3070.711181640625 2840089294501 
BAS HD I 1 3485.40087890625 3385.347900390625 2850089290101 
BAS HD I 2 3485.40087890625 3385.347900390625 2850089290101 
BAS HD I 3 3485.40087890625 3385.347900390625 2850089290101 
BAS HD I 1 1517.4918212890625 3681.723876953125 2900089303001 
BAS HD I 2 1517.4918212890625 3681.723876953125 2900089303001 
BAS HD I 3 1517.4918212890625 3681.723876953125 2900089303001 
BAS HD I 1 2465.820068359375 3934.361572265625 2908089294701 
BAS HD I 2 2465.820068359375 3934.361572265625 2908089294701 
BAS HD I 3 2465.820068359375 3934.361572265625 2908089294701 
BAS HD I 1 455.5813903808594 3953.099609375 2909089311801 
BAS HD I 2 455.5813903808594 3953.099609375 2909089311801 
BAS HD I 3 455.5813903808594 3953.099609375 2909089311801 
BAS HD I 1 1735.59375 4145.87353515625 2915089302001 
BAS HD I 2 1735.59375 4145.87353515625 2915089302001 
BAS HD I 3 1735.59375 4145.87353515625 2915089302001 
